# generated using pymatgen
data_Ca2Al2SiO7
_symmetry_space_group_name_H-M   'P 1'
_cell_length_a   15.43200000
_cell_length_b   15.43200000
_cell_length_c   10.17800000
_cell_angle_alpha   90.00000000
_cell_angle_beta   90.00000000
_cell_angle_gamma   90.00000000
_symmetry_Int_Tables_number   1
_chemical_formula_structural   Ca2Al2SiO7
_chemical_formula_sum   'Ca32 Al32 Si16 O112'
_cell_volume   2423.85633907
_cell_formula_units_Z   16
loop_
 _symmetry_equiv_pos_site_id
 _symmetry_equiv_pos_as_xyz
  1  'x, y, z'
loop_
 _atom_type_symbol
 _atom_type_oxidation_number
  Ca2+  2.0
  Al0+  0.0
  Si0+  0.0
  O2-  -2.0
loop_
 _atom_site_type_symbol
 _atom_site_label
 _atom_site_symmetry_multiplicity
 _atom_site_fract_x
 _atom_site_fract_y
 _atom_site_fract_z
 _atom_site_occupancy
  Ca2+  Ca1  1  0.16875000  0.08125000  0.25550000  1.0
  Ca2+  Ca1  1  0.16875000  0.08125000  0.75550000  1.0
  Ca2+  Ca1  1  0.16875000  0.58125000  0.25550000  1.0
  Ca2+  Ca1  1  0.16875000  0.58125000  0.75550000  1.0
  Ca2+  Ca1  1  0.66875000  0.08125000  0.25550000  1.0
  Ca2+  Ca1  1  0.66875000  0.08125000  0.75550000  1.0
  Ca2+  Ca1  1  0.66875000  0.58125000  0.25550000  1.0
  Ca2+  Ca1  1  0.66875000  0.58125000  0.75550000  1.0
  Ca2+  Ca1  1  0.08125000  0.33125000  0.24450000  1.0
  Ca2+  Ca1  1  0.08125000  0.33125000  0.74450000  1.0
  Ca2+  Ca1  1  0.08125000  0.83125000  0.24450000  1.0
  Ca2+  Ca1  1  0.08125000  0.83125000  0.74450000  1.0
  Ca2+  Ca1  1  0.58125000  0.33125000  0.24450000  1.0
  Ca2+  Ca1  1  0.58125000  0.33125000  0.74450000  1.0
  Ca2+  Ca1  1  0.58125000  0.83125000  0.24450000  1.0
  Ca2+  Ca1  1  0.58125000  0.83125000  0.74450000  1.0
  Ca2+  Ca1  1  0.33125000  0.41875000  0.25550000  1.0
  Ca2+  Ca1  1  0.33125000  0.41875000  0.75550000  1.0
  Ca2+  Ca1  1  0.33125000  0.91875000  0.25550000  1.0
  Ca2+  Ca1  1  0.33125000  0.91875000  0.75550000  1.0
  Ca2+  Ca1  1  0.83125000  0.41875000  0.25550000  1.0
  Ca2+  Ca1  1  0.83125000  0.41875000  0.75550000  1.0
  Ca2+  Ca1  1  0.83125000  0.91875000  0.25550000  1.0
  Ca2+  Ca1  1  0.83125000  0.91875000  0.75550000  1.0
  Ca2+  Ca1  1  0.41875000  0.16875000  0.24450000  1.0
  Ca2+  Ca1  1  0.41875000  0.16875000  0.74450000  1.0
  Ca2+  Ca1  1  0.41875000  0.66875000  0.24450000  1.0
  Ca2+  Ca1  1  0.41875000  0.66875000  0.74450000  1.0
  Ca2+  Ca1  1  0.91875000  0.16875000  0.24450000  1.0
  Ca2+  Ca1  1  0.91875000  0.16875000  0.74450000  1.0
  Ca2+  Ca1  1  0.91875000  0.66875000  0.24450000  1.0
  Ca2+  Ca1  1  0.91875000  0.66875000  0.74450000  1.0
  Al0+  AlT1  1  0.00000000  0.00000000  0.00000000  1.0
  Al0+  AlT1  1  0.00000000  0.00000000  0.50000000  1.0
  Al0+  AlT1  1  0.00000000  0.50000000  0.00000000  1.0
  Al0+  AlT1  1  0.00000000  0.50000000  0.50000000  1.0
  Al0+  AlT1  1  0.50000000  0.00000000  0.00000000  1.0
  Al0+  AlT1  1  0.50000000  0.00000000  0.50000000  1.0
  Al0+  AlT1  1  0.50000000  0.50000000  0.00000000  1.0
  Al0+  AlT1  1  0.50000000  0.50000000  0.50000000  1.0
  Al0+  AlT1  1  0.25000000  0.25000000  0.00000000  1.0
  Al0+  AlT1  1  0.25000000  0.25000000  0.50000000  1.0
  Al0+  AlT1  1  0.25000000  0.75000000  0.00000000  1.0
  Al0+  AlT1  1  0.25000000  0.75000000  0.50000000  1.0
  Al0+  AlT1  1  0.75000000  0.25000000  0.00000000  1.0
  Al0+  AlT1  1  0.75000000  0.25000000  0.50000000  1.0
  Al0+  AlT1  1  0.75000000  0.75000000  0.00000000  1.0
  Al0+  AlT1  1  0.75000000  0.75000000  0.50000000  1.0
  Al0+  SiT2  1  0.92845000  0.32155000  0.97640000  1.0
  Al0+  SiT2  1  0.92845000  0.82155000  0.47640000  1.0
  Al0+  SiT2  1  0.92845000  0.82155000  0.97640000  1.0
  Al0+  SiT2  1  0.57155000  0.67845000  0.97640000  1.0
  Al0+  SiT2  1  0.17845000  0.92845000  0.02360000  1.0
  Al0+  SiT2  1  0.07155000  0.17845000  0.97640000  1.0
  Al0+  SiT2  1  0.07155000  0.67845000  0.47640000  1.0
  Al0+  SiT2  1  0.17845000  0.92845000  0.52360000  1.0
  Al0+  SiT2  1  0.32155000  0.57155000  0.52360000  1.0
  Al0+  SiT2  1  0.32155000  0.07155000  0.02360000  1.0
  Al0+  SiT2  1  0.32155000  0.07155000  0.52360000  1.0
  Al0+  SiT2  1  0.57155000  0.17845000  0.47640000  1.0
  Al0+  SiT2  1  0.42845000  0.32155000  0.97640000  1.0
  Al0+  SiT2  1  0.92845000  0.32155000  0.47640000  1.0
  Al0+  SiT2  1  0.82155000  0.57155000  0.52360000  1.0
  Al0+  SiT2  1  0.17845000  0.42845000  0.52360000  1.0
  Si0+  SiT2  1  0.42845000  0.32155000  0.47640000  1.0
  Si0+  SiT2  1  0.82155000  0.07155000  0.02360000  1.0
  Si0+  SiT2  1  0.67845000  0.42845000  0.52360000  1.0
  Si0+  SiT2  1  0.57155000  0.17845000  0.97640000  1.0
  Si0+  SiT2  1  0.17845000  0.42845000  0.02360000  1.0
  Si0+  SiT2  1  0.32155000  0.57155000  0.02360000  1.0
  Si0+  SiT2  1  0.57155000  0.67845000  0.47640000  1.0
  Si0+  SiT2  1  0.82155000  0.57155000  0.02360000  1.0
  Si0+  SiT2  1  0.42845000  0.82155000  0.97640000  1.0
  Si0+  SiT2  1  0.07155000  0.17845000  0.47640000  1.0
  Si0+  SiT2  1  0.67845000  0.92845000  0.52360000  1.0
  Si0+  SiT2  1  0.67845000  0.92845000  0.02360000  1.0
  Si0+  SiT2  1  0.82155000  0.07155000  0.52360000  1.0
  Si0+  SiT2  1  0.07155000  0.67845000  0.97640000  1.0
  Si0+  SiT2  1  0.67845000  0.42845000  0.02360000  1.0
  Si0+  SiT2  1  0.42845000  0.82155000  0.47640000  1.0
  O2-  O1  1  0.25000000  0.00000000  0.09420000  1.0
  O2-  O1  1  0.25000000  0.00000000  0.59420000  1.0
  O2-  O1  1  0.25000000  0.50000000  0.09420000  1.0
  O2-  O1  1  0.25000000  0.50000000  0.59420000  1.0
  O2-  O1  1  0.75000000  0.00000000  0.09420000  1.0
  O2-  O1  1  0.75000000  0.00000000  0.59420000  1.0
  O2-  O1  1  0.75000000  0.50000000  0.09420000  1.0
  O2-  O1  1  0.75000000  0.50000000  0.59420000  1.0
  O2-  O1  1  0.00000000  0.25000000  0.40580000  1.0
  O2-  O1  1  0.00000000  0.25000000  0.90580000  1.0
  O2-  O1  1  0.00000000  0.75000000  0.40580000  1.0
  O2-  O1  1  0.00000000  0.75000000  0.90580000  1.0
  O2-  O1  1  0.50000000  0.25000000  0.40580000  1.0
  O2-  O1  1  0.50000000  0.25000000  0.90580000  1.0
  O2-  O1  1  0.50000000  0.75000000  0.40580000  1.0
  O2-  O1  1  0.50000000  0.75000000  0.90580000  1.0
  O2-  O2  1  0.07090000  0.17910000  0.14160000  1.0
  O2-  O2  1  0.07090000  0.17910000  0.64160000  1.0
  O2-  O2  1  0.07090000  0.67910000  0.14160000  1.0
  O2-  O2  1  0.07090000  0.67910000  0.64160000  1.0
  O2-  O2  1  0.57090000  0.17910000  0.14160000  1.0
  O2-  O2  1  0.57090000  0.17910000  0.64160000  1.0
  O2-  O2  1  0.57090000  0.67910000  0.14160000  1.0
  O2-  O2  1  0.57090000  0.67910000  0.64160000  1.0
  O2-  O2  1  0.17910000  0.42910000  0.35840000  1.0
  O2-  O2  1  0.17910000  0.42910000  0.85840000  1.0
  O2-  O2  1  0.17910000  0.92910000  0.35840000  1.0
  O2-  O2  1  0.17910000  0.92910000  0.85840000  1.0
  O2-  O2  1  0.67910000  0.42910000  0.35840000  1.0
  O2-  O2  1  0.67910000  0.42910000  0.85840000  1.0
  O2-  O2  1  0.67910000  0.92910000  0.35840000  1.0
  O2-  O2  1  0.67910000  0.92910000  0.85840000  1.0
  O2-  O2  1  0.42910000  0.32090000  0.14160000  1.0
  O2-  O2  1  0.42910000  0.32090000  0.64160000  1.0
  O2-  O2  1  0.42910000  0.82090000  0.14160000  1.0
  O2-  O2  1  0.42910000  0.82090000  0.64160000  1.0
  O2-  O2  1  0.92910000  0.32090000  0.14160000  1.0
  O2-  O2  1  0.92910000  0.32090000  0.64160000  1.0
  O2-  O2  1  0.92910000  0.82090000  0.14160000  1.0
  O2-  O2  1  0.92910000  0.82090000  0.64160000  1.0
  O2-  O2  1  0.32090000  0.07090000  0.35840000  1.0
  O2-  O2  1  0.32090000  0.07090000  0.85840000  1.0
  O2-  O2  1  0.32090000  0.57090000  0.35840000  1.0
  O2-  O2  1  0.32090000  0.57090000  0.85840000  1.0
  O2-  O2  1  0.82090000  0.07090000  0.35840000  1.0
  O2-  O2  1  0.82090000  0.07090000  0.85840000  1.0
  O2-  O2  1  0.82090000  0.57090000  0.35840000  1.0
  O2-  O2  1  0.82090000  0.57090000  0.85840000  1.0
  O2-  O3  1  0.04360000  0.08530000  0.40165000  1.0
  O2-  O3  1  0.04360000  0.08530000  0.90165000  1.0
  O2-  O3  1  0.04360000  0.58530000  0.40165000  1.0
  O2-  O3  1  0.04360000  0.58530000  0.90165000  1.0
  O2-  O3  1  0.54360000  0.08530000  0.40165000  1.0
  O2-  O3  1  0.54360000  0.08530000  0.90165000  1.0
  O2-  O3  1  0.54360000  0.58530000  0.40165000  1.0
  O2-  O3  1  0.54360000  0.58530000  0.90165000  1.0
  O2-  O3  1  0.16470000  0.20640000  0.40165000  1.0
  O2-  O3  1  0.16470000  0.20640000  0.90165000  1.0
  O2-  O3  1  0.16470000  0.70640000  0.40165000  1.0
  O2-  O3  1  0.16470000  0.70640000  0.90165000  1.0
  O2-  O3  1  0.66470000  0.20640000  0.40165000  1.0
  O2-  O3  1  0.66470000  0.20640000  0.90165000  1.0
  O2-  O3  1  0.66470000  0.70640000  0.40165000  1.0
  O2-  O3  1  0.66470000  0.70640000  0.90165000  1.0
  O2-  O3  1  0.08530000  0.45640000  0.09835000  1.0
  O2-  O3  1  0.08530000  0.45640000  0.59835000  1.0
  O2-  O3  1  0.08530000  0.95640000  0.09835000  1.0
  O2-  O3  1  0.08530000  0.95640000  0.59835000  1.0
  O2-  O3  1  0.58530000  0.45640000  0.09835000  1.0
  O2-  O3  1  0.58530000  0.45640000  0.59835000  1.0
  O2-  O3  1  0.58530000  0.95640000  0.09835000  1.0
  O2-  O3  1  0.58530000  0.95640000  0.59835000  1.0
  O2-  O3  1  0.20640000  0.33530000  0.09835000  1.0
  O2-  O3  1  0.20640000  0.33530000  0.59835000  1.0
  O2-  O3  1  0.20640000  0.83530000  0.09835000  1.0
  O2-  O3  1  0.20640000  0.83530000  0.59835000  1.0
  O2-  O3  1  0.70640000  0.33530000  0.09835000  1.0
  O2-  O3  1  0.70640000  0.33530000  0.59835000  1.0
  O2-  O3  1  0.70640000  0.83530000  0.09835000  1.0
  O2-  O3  1  0.70640000  0.83530000  0.59835000  1.0
  O2-  O3  1  0.45640000  0.41470000  0.40165000  1.0
  O2-  O3  1  0.45640000  0.41470000  0.90165000  1.0
  O2-  O3  1  0.45640000  0.91470000  0.40165000  1.0
  O2-  O3  1  0.45640000  0.91470000  0.90165000  1.0
  O2-  O3  1  0.95640000  0.41470000  0.40165000  1.0
  O2-  O3  1  0.95640000  0.41470000  0.90165000  1.0
  O2-  O3  1  0.95640000  0.91470000  0.40165000  1.0
  O2-  O3  1  0.95640000  0.91470000  0.90165000  1.0
  O2-  O3  1  0.33530000  0.29360000  0.40165000  1.0
  O2-  O3  1  0.33530000  0.29360000  0.90165000  1.0
  O2-  O3  1  0.33530000  0.79360000  0.40165000  1.0
  O2-  O3  1  0.33530000  0.79360000  0.90165000  1.0
  O2-  O3  1  0.83530000  0.29360000  0.40165000  1.0
  O2-  O3  1  0.83530000  0.29360000  0.90165000  1.0
  O2-  O3  1  0.83530000  0.79360000  0.40165000  1.0
  O2-  O3  1  0.83530000  0.79360000  0.90165000  1.0
  O2-  O3  1  0.41470000  0.04360000  0.09835000  1.0
  O2-  O3  1  0.41470000  0.04360000  0.59835000  1.0
  O2-  O3  1  0.41470000  0.54360000  0.09835000  1.0
  O2-  O3  1  0.41470000  0.54360000  0.59835000  1.0
  O2-  O3  1  0.91470000  0.04360000  0.09835000  1.0
  O2-  O3  1  0.91470000  0.04360000  0.59835000  1.0
  O2-  O3  1  0.91470000  0.54360000  0.09835000  1.0
  O2-  O3  1  0.91470000  0.54360000  0.59835000  1.0
  O2-  O3  1  0.29360000  0.16470000  0.09835000  1.0
  O2-  O3  1  0.29360000  0.16470000  0.59835000  1.0
  O2-  O3  1  0.29360000  0.66470000  0.09835000  1.0
  O2-  O3  1  0.29360000  0.66470000  0.59835000  1.0
  O2-  O3  1  0.79360000  0.16470000  0.09835000  1.0
  O2-  O3  1  0.79360000  0.16470000  0.59835000  1.0
  O2-  O3  1  0.79360000  0.66470000  0.09835000  1.0
  O2-  O3  1  0.79360000  0.66470000  0.59835000  1.0
